/*--------------------------------*- C++ -*----------------------------------*\
| =========                 |                                                 |
| \\      /  F ield         | OpenFOAM: The Open Source CFD Toolbox           |
|  \\    /   O peration     | Version:  3.0.0                                 |
|   \\  /    A nd           | Web:      www.OpenFOAM.org                      |
|    \\/     M anipulation  |                                                 |
\*---------------------------------------------------------------------------*/
FoamFile
{
    version     2.0;
    format      ascii;
    class       volScalarField;
    object      alpha.workpiece;
}
// * * * * * * * * * * * * * * * * * * * * * * * * * * * * * * * * * * * * * //

dimensions      [0 0 0 0 0 0 0];

internalField   uniform 0;

boundaryField
{
    "(upperBoundary|atmosphere)"
    {
        type            zeroGradient;
        //inletValue      uniform 0;
        //value           uniform 0;
    }

    workpiece
    {
        type            zeroGradient;//inletOutlet;
        //inletValue      uniform 1;
        //value           uniform 1;
    }

    /*defaultFaces
    {
        type            empty;
    }*/
}

// ************************************************************************* //
